Wed Feb 22 15:21:30 UTC 2023 | ### Migrate env qa db staking ###
Wed Feb 22 15:21:30 UTC 2023 | Creating source endpoint...
Wed Feb 22 15:21:34 UTC 2023 | arn:aws:dms:us-east-2:845571256488:endpoint:QTGTXNMRYFHRXQHBPPINVTPQGLUSALAW6T5BO3Q
Wed Feb 22 15:21:34 UTC 2023 | Creating target endpoint...
Wed Feb 22 15:21:38 UTC 2023 | arn:aws:dms:us-east-2:845571256488:endpoint:GGURU2I426NXDF4QFOUYZQHKLZGCELYEEN3ZWCQ
Wed Feb 22 15:22:19 UTC 2023 | Creating replication task...
Wed Feb 22 15:22:25 UTC 2023 | arn:aws:dms:us-east-2:845571256488:task:E6MT3DWD4WPQMIXVDQOOCGXQMKZPKTNPP3IV3FI
Wed Feb 22 15:22:57 UTC 2023 | Replication "ready" to start
Wed Feb 22 15:23:00 UTC 2023 | Replication Started!
Wed Feb 22 20:36:22 UTC 2023 | ### Migrate env da db staking ###
Wed Feb 22 20:36:22 UTC 2023 | Creating source endpoint...
Wed Feb 22 20:36:26 UTC 2023 | arn:aws:dms:us-east-2:845571256488:endpoint:LE4FZHHRGHMTMKU3RRNL2VW7SGC5BIQE4HEP6LY
Wed Feb 22 20:36:26 UTC 2023 | Creating target endpoint...
Wed Feb 22 20:36:29 UTC 2023 | arn:aws:dms:us-east-2:845571256488:endpoint:RN5B2W6IMXKQBRLENZPTABZT3G2HYNQ2ZRVL5WA
Wed Feb 22 20:37:12 UTC 2023 | Creating replication task...
Wed Feb 22 20:37:18 UTC 2023 | arn:aws:dms:us-east-2:845571256488:task:MSAZHXCU52J2IKCF36TZGGRR7F32TLUOZJPWMYI
Wed Feb 22 20:38:02 UTC 2023 | Replication "ready" to start
Wed Feb 22 20:38:05 UTC 2023 | Replication Started!
Wed Feb 22 20:40:11 UTC 2023 | Replication "stopped" checking if it completed...
Wed Feb 22 20:40:13 UTC 2023 | ### Load complete! Migration process completed. Check the tables. Ex: select count(*) from <table_name>; ###
