Wed Feb 22 15:21:30 UTC 2023 | ### Migrate env qa db staking ###
Wed Feb 22 15:21:30 UTC 2023 | Creating source endpoint...
Wed Feb 22 15:21:34 UTC 2023 | arn:aws:dms:us-east-2:845571256488:endpoint:QTGTXNMRYFHRXQHBPPINVTPQGLUSALAW6T5BO3Q
Wed Feb 22 15:21:34 UTC 2023 | Creating target endpoint...
Wed Feb 22 15:21:38 UTC 2023 | arn:aws:dms:us-east-2:845571256488:endpoint:GGURU2I426NXDF4QFOUYZQHKLZGCELYEEN3ZWCQ
Wed Feb 22 15:22:19 UTC 2023 | Creating replication task...
Wed Feb 22 15:22:25 UTC 2023 | arn:aws:dms:us-east-2:845571256488:task:E6MT3DWD4WPQMIXVDQOOCGXQMKZPKTNPP3IV3FI
Wed Feb 22 15:22:57 UTC 2023 | Replication "ready" to start
Wed Feb 22 15:23:00 UTC 2023 | Replication Started!
